Geom Title=MiamiRiver
Program Version=6.41
Viewing Rectangle= 738342.831520814 , 738894.675696586 , 4459374.25057696 , 4459091.48354421 

River Reach=River 1         ,Reach 1         
Reach XY= 7 
738367.9153469864459361.39753002738430.142118498 4459340.7983229
738552.4499107794459295.30840717738622.4013849614459265.69704693
738705.2273635944459209.90752765738769.5998858484459173.00061489
738869.5918704154459104.33659115
Rch Text X Y=,
Reverse River Text= 0 

LCMann Time=Dec/30/1899 00:00:00
LCMann Region Time=Dec/30/1899 00:00:00
LCMann Table=0
Chan Stop Cuts=-1 



Use User Specified Reach Order=0
GIS Ratio Cuts To Invert=-1
GIS Limit At Bridges=0
Composite Channel Slope=5
