Geom Title=Great_Miami_River_Terrain
Program Version=6.41
Viewing Rectangle= 738517.048051154 , 739348.042237583 , 4436319.61918437 , 4435803.71215426 

River Reach=River 1         ,Reach 1         
Reach XY= 13 
 738605.292932474436143.55910675738660.9703063054436123.14406968
 738729.241371844436103.92211919738818.0600396254436079.39756166
738908.2043591674436046.91909359738941.1629783024436028.95193878
738988.6051382884435997.93626114739034.1415607584435967.28372788
739057.9660268594435951.91076696739072.0059173634435942.81856622
739101.2000331784435925.71236719739148.1670795724435892.66148269
 739182.087724194435872.22211991
Rch Text X Y=738749.4916304,4436075.72486
Reverse River Text= 0 

Type RM Length L Ch R = 1 ,165     ,183.3,192.6,195.8
XS GIS Cut Line=2
 738774.663387674436236.14970854738670.5164284184436063.71816425
Node Last Edited Time=Nov/09/2023 16:11:39
#Sta/Elev= 444 
       0  255.59       1  255.59     1.1  255.62     1.6  255.62     1.8  255.66
     2.2  255.66     2.4  255.69     2.8  255.69     2.9  255.71     3.4  255.72
     3.6  255.75       4  255.75     4.2  255.78     4.6  255.78     4.8  255.81
     5.3  255.81     5.4  255.84     5.9  255.84     6.1  255.88     6.5  255.88
     6.7  255.91     7.3  255.91     7.5  255.94     8.3  255.94     8.6  255.97
    10.2  255.97    10.3     256    11.1     256    11.8  256.09    12.7  256.09
      13  256.03    13.5  256.03    13.7     256      14     256    14.2  256.03
    14.7  256.04    15.1  256.09    15.7  256.09    16.2  256.16    16.4  256.16
    16.5  256.19      17  256.19    17.5  256.25    17.8  256.25    17.9  256.28
    18.4  256.31    19.4  256.31    19.6  256.34    19.9  256.34      20  256.38
    20.4  256.38    20.5  256.41    21.5  256.41    21.6  256.44    22.3  256.44
    22.8   256.5    23.2   256.5    24.2   256.7    24.6  256.81    24.8  256.81
      25  256.84    25.9  256.84    26.1  256.81    26.9  256.81      27  256.78
    27.2  256.78    27.2  256.77    27.3  256.75    27.5  256.75    27.7  256.72
      28  256.72    28.1  256.69    28.9  256.69    29.6  256.62    30.2  256.53
    32.7  256.25    34.1  256.01    34.6  255.81    34.9  255.75    35.3  255.77
    35.5  255.74      36  255.52    36.6  255.31    36.8  255.21    37.2  255.09
    37.3     255    37.7  254.91      38  254.78      38  254.75    38.4  254.67
    38.5  254.62    39.1   254.5    39.3   254.5    39.6  254.47    40.7  254.47
      41  254.53    42.3  254.56    42.6  254.59    43.2  254.59    43.4  254.62
      44  254.62    44.3  254.66    44.8  254.63    45.5  254.49    46.4  254.26
    46.5   254.2    47.3  253.91    47.5  253.82    47.7  253.71    48.4  253.49
    48.6   253.4    48.6  253.38    48.7  253.37    49.1  253.23    49.6  252.99
    49.8  252.96    49.9  252.89    50.3  252.76    50.6  252.71    50.6  252.69
    50.8  252.62      51  252.61      51  252.59    51.3  252.56    51.8  252.56
      52  252.53      53  252.53    53.3   252.5    54.3   252.5    54.5  252.47
    54.8  252.47      55  252.44    55.3  252.44    55.3  252.43      56  252.37
    56.1  252.34    56.6  252.34    56.7  252.31    58.5  252.31    58.6  252.28
    62.3  252.28    62.4  252.31    64.6  252.31    64.8  252.28    65.4  252.28
    65.6  252.25    68.2  252.25    68.3  252.28    68.8  252.28    68.9  252.29
    68.9  252.31    69.7  252.31    69.9  252.29      70  252.31    70.7  252.31
    70.9  252.34    71.9  252.34      72  252.32      72  252.31    72.6  252.31
    72.7  252.29    73.4  252.28    73.5  252.27    73.6  252.25    74.2  252.25
    74.4  252.27    74.4  252.28    76.1  252.28    76.4  252.31    79.1  252.31
    79.2  252.34    82.7  252.34    82.7  252.33    82.8  252.31    83.6  252.31
    83.6   252.3    83.7   252.3    83.7  252.29    83.8  252.29    83.8  252.28
      84  252.28    84.1  252.28    84.3   252.3    84.4  252.28    87.2  252.28
    87.4  252.31    88.5  252.31    88.8  252.34    89.3  252.34    89.4  252.35
    89.6  252.38    90.4  252.38    90.5   252.4      91  252.41      91  252.42
    91.2  252.44    92.1  252.44    92.3  252.47    92.7  252.47    92.7  252.48
    92.8  252.49    92.8   252.5      95   252.5    95.1  252.49    95.1  252.47
    95.5  252.47    95.5  252.46    95.6  252.44    95.8  252.44    95.8  252.43
      96  252.41    96.1  252.41    96.4  252.34    96.6  252.34    96.9  252.31
    97.1  252.28    97.3  252.27    97.3  252.26    97.6  252.25    97.7  252.22
    98.5   252.1    98.5  252.08    98.6  252.05    98.6  252.01    98.7     252
    98.7  251.99    98.8  251.96    98.8     251   180.7     251   180.8  251.13
   180.8  251.12   180.9  251.12     181  251.12   181.1  251.13   181.1  251.12
   181.2  251.12   181.3  251.12   181.4  251.13   181.4  251.14   181.5  251.14
   181.6  251.16   181.7  251.17   181.8  251.19   181.9  251.21   181.9  251.22
   181.9  251.24     182  251.26   182.1   251.3   182.2  251.68   182.8  254.36
   182.9  254.39     183   254.5     183  254.55     183  254.59   183.1  254.62
   183.2  254.66   183.2  254.67   183.3  254.69   183.4  254.69   183.5  254.69
   183.6  254.71   183.6  254.72   183.7  254.72   183.8  254.75   183.8  254.76
   183.9  254.78     184  254.82     184  254.86   184.1  254.94   184.1     255
   184.3  255.37   184.3  255.48   184.4  255.61   184.4  255.67   184.5  255.74
   184.6   255.8   184.6  255.81   184.8  255.84   184.9  255.82   184.9  255.81
     185  255.81   185.1  255.81   185.2   255.8   185.2  255.78   185.3  255.78
   185.4  255.78   185.6  255.76   185.7  255.75   185.8  255.74   186.3  255.72
   186.3  255.71   187.1  255.72   187.2  255.73   187.3  255.75   189.3  255.72
   189.3  255.71   189.4   255.7   189.5   255.7   189.5  255.69   189.7  255.69
   189.8  255.69   191.6  255.49   191.7   255.5   191.9  255.48     192  255.47
     192  255.46   192.1  255.46   192.2  255.46   192.2  255.45   192.3  255.45
   192.4  255.46   192.5  255.45   192.5  255.44   192.6  255.44   192.7  255.45
   192.7  255.46   192.8  255.47   192.9  255.47   192.9  255.45     193  255.45
   193.1  255.44   193.2  255.43   193.2  255.42   193.3  255.42   193.3  255.41
   193.4  255.41   193.5  255.44   193.6  255.44   193.7  255.44   193.9  255.44
     194  255.44   194.1  255.44   194.1  255.45   194.2  255.45   194.2  255.46
   194.3  255.46   194.4  255.47   194.5  255.48   194.6  255.48   194.7   255.5
   194.8   255.5   194.9  255.51     195  255.55   195.1  255.56   195.2  255.57
   195.5  255.65   195.6  255.66   195.7   255.7   195.9  255.75     196  255.76
   196.1  255.77   196.2  255.78   196.3  255.79   196.3   255.8   196.3  255.81
   196.4  255.83   196.6  255.84   196.7  255.85   196.8  255.86   196.9  255.86
     197  255.87   197.1  255.85   197.2  255.86   197.3  255.87   197.4  255.88
   197.5  255.88   197.6  255.89   197.8  255.88   197.9  255.88   197.9  255.89
     198  255.89   198.1   255.9   198.1  255.91   198.2  255.91   198.4  255.92
   198.5  255.91   198.6  255.91   198.7  255.92   198.8  255.93   198.9  255.94
     199  255.95   199.1  255.95   199.2  255.96   200.1  255.97   200.3  255.99
   200.6  256.02   200.7  256.02   200.8  256.01   200.8     256   200.9  256.01
     201  256.01     201  256.02   201.1  256.02   201.1  256.03   201.2  256.03
   201.3  256.04   201.4  256.04     202  256.01   202.1  256.02   202.2  256.02
   202.3  256.03   202.4  256.02   202.5  256.01   202.6  256.01   202.6  256.02
   202.7  256.01   202.8     256   202.8  255.99   203.5     256   203.6  255.98
   203.7  255.98   203.8  255.97   203.9  255.96   204.3  255.95   204.4  255.95
   204.4  255.94   204.8  255.89   204.9  255.89     205  255.88     205  255.87
   205.1  255.87   205.2  255.87   205.2  255.86   205.2  255.85   205.6  255.81
   205.7  255.81   205.7   255.8   205.8  255.79   205.9  255.78     206  255.76
   206.1  255.75   206.1  255.74   206.2  255.73   206.2  255.71   206.3  255.69
   206.4  255.69   206.5  255.67   206.6  255.66   206.6  255.64   206.8  255.59
   206.9  255.56     207  255.54     207  255.53207.1115  255.52
#Mann= 3 ,0,0
       0     .05       0       0    .035       0207.1115     .05       0
Bank Sta=0,207.1115
XS Rating Curve= 0 ,0
XS HTab Starting El and Incr=251.5,0.27, 20 
XS HTab Horizontal Distribution= 5 , 5 , 5 
Exp/Cntr(USF)=0,0
Exp/Cntr=0.3,0.1

Type RM Length L Ch R = 1 ,107     ,85.3,83.5,83.2
XS GIS Cut Line=2
738939.4048989424436167.61040659 738854.146931784435995.91331655
Node Last Edited Time=Nov/09/2023 15:55:45
#Sta/Elev= 444 
       0  252.97     1.7  252.95     2.5  252.98     3.9  252.93     5.6  252.95
     8.7  252.87    10.6  252.93    11.4  252.85    13.3  252.89    15.6  252.88
    16.8  252.91    18.4  252.88    23.6  252.94    26.8  252.93    28.2  252.87
    38.2  253.04    42.1  253.14    42.9   253.1    43.9  253.11    47.4  253.22
    48.8   253.2    49.4  253.22      52  253.18    55.8  253.19    57.6  253.14
    61.9  253.15    69.6  253.02    73.9  252.91    78.7  252.87    79.7  252.82
    84.2   252.9    84.8  252.88    87.3   252.9    88.5  252.85    90.1  252.84
    91.1  252.99    92.2   253.1    93.2  253.08      94  253.31    94.2  253.42
    94.3  253.53    94.4  253.54    94.5  253.61    94.7  253.66    94.7  253.67
    94.7  253.68    94.8  253.72    94.8  253.74      95  253.82      95  253.84
    95.1  253.87    95.1  253.89    95.6  253.99    95.9  254.14    95.9  254.16
    96.2  254.27    96.8  254.56      97   254.6      97  254.62    97.2  254.72
    97.3  254.75    97.4  254.86    97.6  254.92    97.7  254.94    97.8  254.94
    97.9  254.98    97.9  255.01      98  255.05    98.1  255.11    98.1  255.12
    98.2  255.19    98.7   255.4    98.8  255.46    98.8  255.49    99.1   255.6
    99.2  255.62    99.3  255.63    99.6  255.76    99.7  255.82    99.7  255.84
   100.2  255.95   100.4  256.03   100.4  256.06   100.5  256.12   100.8  256.21
     101  256.24     101  256.26   101.3   256.4   101.4  256.48   101.8  256.54
   103.6   256.5   104.5  256.57   104.8  256.55   105.3  256.44   105.9   256.2
   105.9  256.18     106  256.13   106.1  256.13   106.1  256.12   106.2  256.09
   106.2  256.06   106.3     256   106.4  255.99   106.4  255.98   106.4  255.97
   106.5  255.94   106.5  255.91   106.6  255.89   106.6  255.85   106.7  255.84
   106.7  255.83   106.8  255.78     107  255.73   107.3  255.58   107.3  255.56
   107.6  255.47   107.7  255.41   108.4  255.14   109.1  254.77   109.4  254.65
   109.5  254.63   109.5   254.6   109.6  254.55   109.7  254.52   109.7   254.5
   109.9  254.44   110.6  254.32   110.7  254.32   110.9  254.25   111.2  254.19
   111.6  254.15     113  253.83   114.9  253.73   115.8   253.8   118.1  253.64
   118.1  253.62   119.1  253.33   119.1   253.3   119.2  253.29   119.3  253.26
   121.3  252.55     123  252.13     124  251.98   125.3  251.93   127.7  251.91
   128.9   251.9   130.5  251.93   133.9   251.9   134.3  251.93   135.3  251.92
     136  251.97   136.5  251.96   139.9   252.1   143.7  252.05   145.8  252.07
   147.1  252.05   149.7  252.11   153.6  252.38   155.9   252.4   158.1  252.38
   158.2  252.39   158.3   252.4   158.4  252.41   158.4  252.42   158.8  252.43
   158.8  252.42   159.1  252.41   159.2   252.4   160.7  252.39   162.1  252.49
   163.2  252.52   165.9  252.52   168.7  252.59   170.4  252.54   170.5  252.55
   170.5  252.56   170.6  252.57     171  252.72     171  252.73   171.1  252.76
   171.1  252.77   171.2  252.79   171.3   252.8   171.3  252.81   171.3  252.82
   171.6  252.84   172.9  252.66   172.9  252.64     173  252.63     173  252.61
   173.1  252.58   173.2  252.55   173.3  252.53   173.3  252.51   173.4  252.48
   173.4  252.47   173.5  252.47   173.6  252.44   173.6  252.43   173.7  252.42
   173.7   252.4   173.7  252.39   173.9  252.37   173.9  252.36     174  252.34
     174  252.32   174.1  252.32   174.1  252.31   174.2  252.28   174.3  252.24
   174.3  252.21   174.4  252.21   174.4   252.2   174.5  252.16   174.6  252.15
   174.7  252.13   174.7  252.12   174.8  252.09   174.9  252.08     175  252.06
   175.1  252.04   175.2  252.03   175.3  252.01   175.4  251.99   175.6  251.97
   176.5  252.05     177  251.94   177.1  251.86   177.1  251.85   177.3  251.78
   177.3  251.76   177.4  251.71   177.5   251.7   177.6     250   254.5     250
   254.6  251.35   255.3  251.47   255.3  251.48   255.6  251.56   255.6  251.57
   255.6  251.58   255.8  251.68   255.9  251.73   255.9  251.74   255.9  251.75
   256.1  251.85   256.2  251.97   256.2  251.98   256.2  251.99   256.3  252.07
   256.4   252.1   256.4  252.14   256.5  252.19   256.5   252.2   256.5  252.21
   256.7  252.27   257.5  252.66   257.6  252.68   257.7   252.7   257.7  252.73
   257.8  252.74   258.1  252.83   258.1  252.84   258.2  252.88   258.4  252.92
   259.3  253.27   259.4  253.29   259.5  253.32   259.6  253.34   259.7  253.37
   259.8  253.38   259.8  253.39   259.9  253.42     260  253.46   260.1  253.47
   260.1  253.49   260.2  253.52   260.4  253.57   260.6  253.65   260.7  253.66
   260.7  253.68   260.8  253.71   260.9  253.74     261  253.77   262.2  254.02
   262.4  254.05   262.4  254.06   262.6  254.09   262.7  254.11   262.8  254.13
   262.8  254.14   262.9  254.15     263  254.18   263.1  254.21   263.2  254.22
   263.3  254.25   263.4  254.27   263.4  254.28   263.6   254.3   263.7  254.31
   263.8  254.32   263.9  254.34   264.1  254.37   264.1  254.38   264.2  254.41
   264.2  254.42   264.3  254.44   264.4  254.46   264.4  254.47   264.5   254.5
   264.5  254.51   264.6  254.53   264.7  254.55   264.7  254.56   264.8  254.59
   264.8   254.6   264.9  254.62     265  254.63     265  254.65   265.1  254.67
   265.1  254.68   265.2  254.68   265.3  254.73   265.3  254.75   265.4  254.79
   265.5  254.83   265.6  254.87   265.7   254.9   265.7  254.91   265.8  254.91
   265.9  254.94   265.9  254.95     266  254.96   266.1  254.96   266.1  254.97
   266.2  254.99   266.2     255   266.3  255.01   266.3  255.03   266.4  255.05
   266.5  255.07   266.6   255.1   266.7  255.14   266.7  255.15   266.8  255.17
   266.8   255.2   266.9  255.21     267  255.24     267  255.25     267  255.27
   267.3  255.39   267.3   255.4   267.4  255.43   267.4  255.45   267.5  255.47
   267.6   255.5   267.6  255.51   267.6  255.52   267.7  255.55   267.9  255.63
   268.1  255.66   268.1  255.67   268.2  255.69   268.3  255.73   268.4  255.75
   268.4  255.76   268.5   255.8   268.5  255.81   268.6  255.82   268.6  255.85
   268.7  255.87   268.8  255.92   268.9  255.93     269  255.97     269  255.98
     270  256.23   270.5  256.29     271  256.31   271.1   256.3   271.2  256.29
   271.2  256.28   271.3  256.27   271.3  256.26   271.4  256.25   271.5  256.23
   271.6  256.22   271.6  256.21   271.6   256.2   271.7  256.19   271.8  256.18
   271.9  256.17     272  256.17   272.5  256.12   272.5  256.11   272.6  256.09
   272.7  256.08   272.8  256.06   272.9  256.05   272.9  256.04     273  256.03
   273.1  256.01   273.1     256   273.3  255.98   273.3  255.97   273.4  255.95
   273.5  255.95   273.5  255.94   273.6  255.92   273.7   255.9   273.8   255.9
   273.9  255.88   273.9  255.87     274  255.86   274.1  255.85   274.1  255.84
   274.2  255.83   274.2  255.82   274.3  255.81   274.4   255.8   274.4  255.79
   274.5  255.79   274.5  255.77   274.6  255.77   275.1  255.63   275.2  255.61
   275.3  255.61   275.4  255.59   275.5  255.58   275.6  255.58   275.6  255.57
   275.8  255.57   275.8  255.56   277.9  255.61   280.8  255.53   280.9  255.54
     281  255.55   281.1  255.57   281.5  255.73   281.6  255.76   281.6  255.77
   281.8   255.8     282  255.81   282.1  255.82282.2186  255.82
#Mann= 3 ,0,0
       0     .05       0       0    .035       0282.2186     .05       0
Bank Sta=0,282.2186
XS Rating Curve= 0 ,0
XS HTab Starting El and Incr=250.5,0.3, 20 
XS HTab Horizontal Distribution= 5 , 5 , 5 
Exp/Cntr(USF)=0,0
Exp/Cntr=0.3,0.1

Type RM Length L Ch R = 1 ,82      ,,62.1,
XS GIS Cut Line=2
739048.8443399684436199.29505836 738929.007921094435960.25627573
Node Last Edited Time=Nov/09/2023 16:36:57
#Sta/Elev= 448 
       0  254.95      .3  255.06     1.3  255.14     2.2  255.13     4.4  255.19
     5.2  255.18     6.1   255.2     6.8  255.16     7.4  255.18     8.1  255.16
      12   254.9    15.6  254.78    17.4  254.58    18.2  254.43    19.9  254.23
    20.3  254.14    21.5  253.98    22.8  253.87    23.5  253.77      25  253.72
    26.8  253.71    28.6  253.65    32.3  253.66    33.1  253.72    35.7  253.76
      36  253.73    36.5  253.74    37.2  253.67    38.9  253.65    39.7   253.7
    40.9  253.63    41.5  253.64      42  253.61      43  253.61    43.1  253.62
    43.2  253.63    43.8  253.62    45.8  253.67    47.1  253.64    47.7  253.65
    48.3   253.7    49.8  253.65    50.9  253.72    53.1  253.72    53.8  253.75
    57.4  253.75    58.6   253.8    59.5  254.04    64.2  254.53    65.4   254.7
    66.3  254.91    67.1  255.23    67.5  255.48    67.6  255.48    67.7  255.57
      68  255.65    69.6  256.36      70  256.52    70.6  256.72    70.9  256.79
    71.3  256.83    71.7  256.83    72.5   256.8      73  256.81    73.6  256.75
    74.3  256.55    74.9  256.33    75.5  256.06    76.4  255.75    76.9  255.46
    76.9  255.44      77  255.42    77.1  255.38    77.2  255.34    77.2  255.32
    77.3   255.3    77.7  255.12    78.3   254.8    79.5  254.23    80.4  253.93
    80.4   253.9    80.5   253.9    80.7  253.84    80.7  253.81    80.8  253.81
    81.6  253.63    83.5  253.47    86.9  253.38      88  253.27    89.3  253.22
      90  253.14      90  253.13      90  253.12    90.1   253.1    90.2   253.1
    90.3  253.09    90.3  253.07    92.5  252.93    93.5  252.83    93.5  252.82
    94.4  252.79    94.8  252.75      96  252.72    96.5  252.64    98.2  252.46
    99.1  252.42    99.8  252.36   100.3  252.35   101.5  252.26   104.1  252.16
   108.1  252.15   110.5  252.12     113  252.22   119.4  252.26   121.3   252.3
   123.2   252.3   125.4  252.36   133.8  252.35   136.1  252.44   137.7  252.42
   140.3  252.46   140.9  252.42   141.7  252.42   142.1  252.41   142.2   252.4
   143.2  252.42   147.2  252.37   147.5  252.35   147.6  252.35   147.6  252.34
   147.7  252.34   147.8  252.33   148.9   252.3   149.8   252.2   149.9   252.2
   150.2  252.17   150.3  252.17   150.3  252.16   150.4  252.16   150.4  252.15
   150.5  252.14   150.8   252.1   150.8  252.09   150.9  252.08   150.9  252.07
     151  252.06   151.4  252.03   151.4  252.02   151.5  252.02   151.6  252.01
   151.6     252   151.7  251.99   151.7  251.98   152.1  251.94     154  251.92
   154.3  251.95   154.7  252.02   154.7  252.03   155.8  252.14   155.9  252.14
   155.9  252.13     156  252.13   156.4  252.15   156.5  252.15   156.6  252.15
   156.7  252.15   156.8  252.15   156.9  252.15   157.5   252.1   157.7  252.07
   157.7  252.06   157.8  252.04   157.8  252.01   158.1  251.85   158.1  251.81
   158.1  251.79   158.2  251.74   158.2  251.73   158.3  251.67   158.3  251.65
   158.4  251.62   158.4  251.57   158.5  251.53   158.6  251.48   158.6  251.47
   158.7  251.44   158.7   251.4   158.9  251.35   158.9     250   159.8     250
   160.1  251.37   160.4  251.38   160.5  251.37   160.6  251.37   160.7  251.36
   160.7     250   244.7     250   244.7  251.39   244.8  251.41   244.9  251.43
   244.9  251.44   244.9  251.46     245  251.47     245  251.49   245.1   251.5
   245.2  251.54   245.3  251.59   245.3  251.61   245.4  251.64   245.5  251.68
   245.5  251.69   245.7  251.74   245.7  251.76   245.8  251.78     246   251.8
   246.1  251.83   246.2  251.84   246.3  251.84   246.4  251.85   246.5  251.86
   246.6  251.86   246.7  251.87   246.9  251.89   247.8  252.17   247.9  252.19
     248  252.23   248.1  252.28   248.1  252.31   248.4  252.45   248.5  252.51
   248.6  252.55   248.7  252.61   248.8  252.63   248.9  252.67     249  252.71
     249  252.73   249.1  252.75   249.2   252.8   249.3  252.84   249.3  252.87
   249.5  252.93   249.6  252.97   249.7  253.01   249.8  253.04   249.9  253.08
     250  253.09     250  253.11   250.1  253.14   250.1  253.15   250.2  253.18
   250.3   253.2   250.4  253.28   250.5  253.33   250.6  253.36   250.6  253.39
   250.8  253.48   250.9  253.53     251  253.57     251  253.58   251.1  253.62
   251.2  253.65   251.2  253.67   251.3  253.72   251.4  253.76   251.5  253.79
   251.5  253.81   252.1  254.02   252.1  254.05   252.3  254.11   252.3  254.12
   252.3  254.13   252.4  254.17   252.4  254.19   252.5  254.21   252.6  254.25
   252.6  254.26   252.7  254.29   252.7  254.31     253  254.41     253  254.44
   253.1  254.46   253.3  254.58   253.4   254.6   253.5  254.64   253.5  254.65
   253.5  254.66   253.6  254.69   253.7  254.72   253.7  254.74   253.8  254.78
   253.8  254.79   253.9  254.83     254  254.86     254  254.88   254.1  254.93
   254.1  254.94   254.1  254.95   254.2  254.99   254.3  255.02   254.3  255.04
   254.4  255.08   254.4  255.09   254.9  255.22   254.9  255.24     255  255.27
     255  255.28   255.1  255.28   255.1  255.31   255.3  255.38   255.3  255.39
   255.4   255.4   255.5  255.46   255.6  255.48   255.6  255.49   255.7   255.5
   255.7  255.51   255.8  255.53   255.8  255.54   255.9  255.56     256  255.57
   256.1   255.6   256.1  255.62   256.2  255.63   256.2  255.67   256.3  255.68
   256.4  255.72   256.4  255.75   256.5  255.77   256.5  255.82   256.6  255.82
   256.6  255.83   256.7  255.87   256.7   255.9   256.8  255.92   256.9  255.96
   256.9  255.98     257  256.04   257.1  256.07   257.2  256.11   257.2  256.12
   257.2  256.13   257.3  256.17   257.3   256.2   257.4  256.21   257.5  256.25
   257.6  256.31   258.1  256.57   258.1  256.58   258.1  256.59   258.2  256.61
   258.3  256.64   258.4  256.66   258.4  256.67   258.5  256.67   258.6  256.68
   258.6  256.69   258.8  256.71   258.9  256.71     259  256.72   259.2  256.72
   259.3  256.72   259.4  256.72   259.5  256.72   259.6  256.71   259.7  256.71
   259.8   256.7   259.9  256.68     260  256.68     260  256.67     260  256.66
   260.1  256.64   260.2  256.61   260.3   256.6   260.3  256.58   260.4  256.57
   260.5  256.53   260.5  256.51   260.6   256.5   260.6  256.48   260.7  256.45
   260.8  256.41   260.9  256.41   260.9   256.4   260.9  256.39     261  256.36
   261.1  256.35   261.2  256.32   261.2  256.31   261.2   256.3   261.3  256.28
   261.5   256.2   261.5  256.18   261.6  256.17   261.6  256.14   261.7  256.13
   261.8  256.09   261.9  256.06     262  256.04     262  256.03   262.1     256
   262.1  255.99   262.1  255.98   262.1  255.96   262.2  255.93   262.3   255.9
   262.3  255.87   262.4  255.81   262.4  255.78   262.5  255.75   262.5  255.71
   262.6  255.65   262.6  255.62   262.7  255.56   262.7  255.53   262.7  255.52
   262.8   255.5   262.8  255.46   262.9   255.4     263  255.38     263  255.37
     263  255.36   263.1  255.34   263.2  255.32   263.3   255.3   264.4  255.25
   264.5  255.25   264.6  255.25   264.8  255.25   264.9  255.25     265  255.25
   265.1  255.25   265.2  255.25   265.3  255.25   265.3  255.26   265.4  255.26
   265.6  255.26   265.8  255.26     266  255.27   266.1  255.27   266.2  255.27
   266.3  255.28   266.4  255.28   266.6  255.29   266.8  255.29   266.9  255.29
   267.2  255.28   267.3  255.28267.3954  255.28
#Mann= 3 ,0,0
       0     .05       0       0    .035       0267.3954     .05       0
Bank Sta=0,267.3954
XS Rating Curve= 0 ,0
XS HTab Starting El and Incr=250.5,0.32, 20 
XS HTab Horizontal Distribution= 5 , 5 , 5 
Exp/Cntr(USF)=0,0
Exp/Cntr=0.3,0.1

Type RM Length L Ch R = 1 ,63      ,,85.9,
XS GIS Cut Line=2
739072.5951478284436109.24994382738977.1552471624435918.48697768
Node Last Edited Time=Nov/09/2023 15:55:14
#Sta/Elev= 449 
       0  254.47      .3  254.47      .5   254.5     1.4   254.5     1.5  254.53
       2  254.53     2.2  254.56     3.1  254.56     3.8  254.62       4  254.66
     4.8  254.66     4.9  254.69     6.3  254.69     6.4  254.72     7.7  254.72
     7.8  254.75     8.9  254.78     9.1  254.81    11.1  254.81    11.2  254.84
      12  254.84    12.1  254.88      13  254.88    13.2  254.91    17.4  254.94
    17.8  254.97    18.3  255.06    19.5  255.47    19.8  255.53    20.3  255.56
      23  255.56    23.6  255.44    23.9  255.35    24.3  255.18    25.1  254.97
    26.6  254.28    27.3  254.06    27.6  253.91    28.1  253.78    28.7   253.5
    29.1  253.44    29.9   253.5    30.4  253.44      31  253.44    31.3   253.5
    31.9  253.56    32.4  253.53    34.6  252.84    35.3  252.69    35.6  252.59
    36.6  252.47    37.8  252.41    38.5  252.31    39.1  252.35    39.4  252.42
    40.3  252.38    40.6  252.41    41.9  252.41      42  252.38    44.1  252.38
    44.1  252.39    44.3  252.41    45.1  252.31    45.3  252.31    45.4  252.28
    45.7  252.28    46.3  252.19    46.8  252.19      47  252.16    49.7  252.16
    49.8  252.15    49.9  252.12    50.5  252.16    50.8  252.12    51.1  252.15
    51.4  252.12    53.1  252.12    53.3  252.09    53.6  252.09    53.9  252.12
    54.6  252.13    54.8  252.16    55.5  252.16    55.7  252.12    56.8  252.09
    56.9  252.08    56.9  252.06    57.7  252.12    58.3  252.12    58.6  252.15
    58.8  252.13    59.4  252.16    60.5  252.16    60.6  252.19    61.5  252.19
      62  252.22    62.1  252.25    62.5  252.25    62.5  252.26    62.6  252.28
    63.2  252.31    64.8  252.31    64.9  252.28      65  252.28    65.3  252.29
    65.4  252.31    68.8  252.31    68.9  252.29    68.9  252.28    70.1  252.28
    70.1  252.27    70.2  252.26    70.3  252.25    71.6  252.28    71.9  252.25
    71.9  252.26      72  252.26      72  252.27    72.1  252.27    72.1  252.28
    74.4  252.31    75.3  252.41    75.8  252.41    75.8   252.4    75.9  252.38
    77.2  252.38    77.3  252.41    78.5  252.41    78.6  252.42    78.6  252.43
    78.7  252.44    79.4  252.44    79.5  252.45    79.5  252.46    79.6  252.47
    80.9  252.47    81.2   252.5    82.6  252.47    82.6  252.46    82.7  252.44
    87.3  252.44    87.5  252.47    88.6  252.47    88.6  252.45    88.7  252.44
    90.3  252.44    90.4  252.46    90.4  252.47    91.1  252.47    91.3   252.5
    92.4   252.5    92.7  252.53      93   252.5    93.2  252.51    93.3  252.52
    93.3  252.53    95.5  252.53    95.5  252.55    95.6  252.56    95.9  252.53
    97.3  252.53    97.6  252.56    98.2  252.56    98.4  252.53   100.3  252.53
   100.4   252.5   100.5   252.5   100.6  252.51   100.6  252.52   100.7  252.53
   101.5  252.53   101.6  252.53   101.6  252.52   101.7   252.5   101.9   252.5
   101.9  252.51     102  252.52     102  252.53   102.3  252.53   102.4  252.52
   102.5  252.51   102.7   252.5   102.7  252.51   102.8  252.53   105.7  252.53
   105.9  252.55   105.9  252.56   106.4  252.56   106.5  252.56   106.5  252.57
   106.6  252.59   108.3  252.59   108.3  252.57   108.4  252.57   108.4  252.56
   109.1  252.56   109.1  252.55   109.6  252.53   109.6  252.52   109.7  252.51
   109.7   252.5   109.9   252.5   110.4  252.39   110.4  252.36   110.5  252.34
   110.6  252.32   110.6  252.31   110.7  252.31   111.3  252.19   111.3  252.17
   111.5   252.1   111.7  252.07   111.8     252   111.9     252   111.9  251.99
     112  251.96     112  251.94   112.2  251.91   112.2   251.9   112.3  251.87
   112.3  251.84   113.3  251.69   113.6  251.62   113.9  251.46     114  251.41
   114.1  251.38   114.1     251     202     251   202.1  251.34   202.2  251.34
   202.3  251.34   202.4  251.35   202.5   251.4   202.6  251.41   202.6  251.42
   202.7  251.43   202.7  251.44     203   251.5   203.1   251.5   203.2   251.5
   203.3   251.5   203.5  251.54   203.6  251.55   203.6  251.56   203.7  251.56
   203.8  251.56   204.2  251.53   204.3  251.56   204.4  251.58   204.4  251.59
   204.5  251.61   204.5  251.62   204.5  251.63   204.6  251.65   204.7   251.7
   204.8  251.73   204.8  251.75   204.8  251.76   204.9  251.78     205  251.81
     205  251.82   205.1  251.85   205.1  251.87   205.2  251.88   205.2   251.9
   205.2  251.91   205.3  251.94   205.3  251.95   205.4     252   205.4  252.02
   205.5  252.03   205.5  252.07   205.6  252.09   205.8  252.19   205.8   252.2
   205.9  252.21   205.9  252.24     206  252.26     206  252.29   206.1  252.31
   206.1  252.33   206.2  252.36   206.3  252.38   206.4  252.41   206.4  252.42
   206.5  252.43   206.5  252.44   206.6  252.45   206.6  252.46   206.7  252.47
   206.8  252.49   206.9   252.5     207   252.5   207.1  252.51   207.1  252.52
   207.2  252.53   207.3  252.53   207.8  252.59   207.8   252.6   207.9  252.62
     209  252.59     209   252.6   209.1  252.62   211.5  252.66   211.6  252.68
   211.6  252.69   212.5  252.72   213.4  252.78   215.1  252.81   215.2  252.83
   215.3  252.84   215.6  252.88   215.7   252.9   215.7  252.91   216.5  253.01
   216.5  253.03   216.7  253.08   216.8  253.08   216.8  253.09   217.1  253.19
   217.1  253.21   217.1  253.22   217.2  253.22   217.3  253.23   217.4  253.26
   217.4  253.28   217.4  253.29   217.5  253.31   217.6  253.34   217.6  253.35
   217.7  253.39   217.8  253.46   217.9  253.49     218  253.53     218  253.56
   218.1  253.57   218.1  253.59   218.2  253.62   218.2  253.63   218.3  253.66
   218.3  253.68   218.4  253.69   218.4  253.72   218.5  253.74   218.5  253.76
   218.6  253.78   218.7   253.8   218.7  253.84     219  253.96     219     254