Geom Title=Meijer
Program Version=6.41
Viewing Rectangle= 737686.327094311 , 738336.9144765 , 4429542.40683587 , 4429074.74214996 

Storage Area=Perimeter 1     ,,
Storage Area Surface Line= 22 
738140.5845927974429198.07277477                
738144.5896879184429134.39176234                
738078.5056184144429131.18768624                
738074.9010328044429145.20551917                
738065.2888045134429190.86360355                
738020.8322486644429188.06003697                
737941.130855746 4429182.4529038                
  737923.10792774429219.29977892                
 737891.46767624 4429235.3201594                
737753.6924040614429255.34563501                
737741.2766091844429339.05212305                
737733.2664189414429355.87352256                
737789.3377506424429358.27657963                
738208.6712098624429374.69746963                
 738208.270700354429345.46027524                
738211.8752859594429321.83021403                
738221.4875142514429303.80728598                
738255.1303132714429272.96805354                
738249.5231801014429262.55480623                
738211.0742669354429210.08806014                
738170.6228062084429202.47837941                
738140.5845927974429198.07277477                
Storage Area Type= 1 
Storage Area Area=
Storage Area Min Elev=
Storage Area Is2D=-1
Storage Area Point Generation Data=,,2,2
Storage Area 2D Points= 19327 
738196.2664189414429373.69746963738198.2664189414429373.69746963
738200.2664189414429373.69746963738202.2664189414429373.69746963
738204.2664189414429373.69746963738206.2664189414429373.69746963
738146.2664189414429371.69746963738148.2664189414429371.69746963
738150.2664189414429371.69746963738152.2664189414429371.69746963
738154.2664189414429371.69746963738156.2664189414429371.69746963
738158.2664189414429371.69746963738160.2664189414429371.69746963
738162.2664189414429371.69746963738164.2664189414429371.69746963
738166.2664189414429371.69746963738168.2664189414429371.69746963
738170.2664189414429371.69746963738172.2664189414429371.69746963
738174.2664189414429371.69746963738176.2664189414429371.69746963
738178.2664189414429371.69746963738180.2664189414429371.69746963
738182.2664189414429371.69746963738184.2664189414429371.69746963
738186.2664189414429371.69746963738188.2664189414429371.69746963
738190.2664189414429371.69746963738192.2664189414429371.69746963
738194.2664189414429371.69746963738196.2664189414429371.69746963
738198.2664189414429371.69746963738200.2664189414429371.69746963
738202.2664189414429371.69746963738204.2664189414429371.69746963
738206.2664189414429371.69746963738094.2664189414429369.69746963
738096.2664189414429369.69746963738098.2664189414429369.69746963
738100.2664189414429369.69746963738102.2664189414429369.69746963
738104.2664189414429369.69746963738106.2664189414429369.69746963
738108.2664189414429369.69746963738110.2664189414429369.69746963
738112.2664189414429369.69746963738114.2664189414429369.69746963
738116.2664189414429369.69746963738118.2664189414429369.69746963
738120.2664189414429369.69746963738122.2664189414429369.69746963
738124.2664189414429369.69746963738126.2664189414429369.69746963
738128.2664189414429369.69746963738130.2664189414429369.69746963
738132.2664189414429369.69746963738134.2664189414429369.69746963
738136.2664189414429369.69746963738138.2664189414429369.69746963
738140.2664189414429369.69746963738142.2664189414429369.69746963
738144.2664189414429369.69746963738146.2664189414429369.69746963
738148.2664189414429369.69746963738150.2664189414429369.69746963
738152.2664189414429369.69746963738154.2664189414429369.69746963
738156.2664189414429369.69746963738158.2664189414429369.69746963
738160.2664189414429369.69746963738162.2664189414429369.69746963
738164.2664189414429369.69746963738166.2664189414429369.69746963
738168.2664189414429369.69746963738170.2664189414429369.69746963
738172.2664189414429369.69746963738174.2664189414429369.69746963
738176.2664189414429369.69746963738178.2664189414429369.69746963
738180.2664189414429369.69746963738182.2664189414429369.69746963
738184.2664189414429369.69746963738186.2664189414429369.69746963
738188.2664189414429369.69746963738190.2664189414429369.69746963
738192.2664189414429369.69746963738194.2664189414429369.69746963
738196.2664189414429369.69746963738198.2664189414429369.69746963
738200.2664189414429369.69746963738202.2664189414429369.69746963
738204.2664189414429369.69746963738206.2664189414429369.69746963
738044.2664189414429367.69746963738046.2664189414429367.69746963
738048.2664189414429367.69746963738050.2664189414429367.69746963
738052.2664189414429367.69746963738054.2664189414429367.69746963
738056.2664189414429367.69746963738058.2664189414429367.69746963
738060.2664189414429367.69746963738062.2664189414429367.69746963
738064.2664189414429367.69746963738066.2664189414429367.69746963
738068.2664189414429367.69746963738070.2664189414429367.69746963
738072.2664189414429367.69746963738074.2664189414429367.69746963
738076.2664189414429367.69746963738078.2664189414429367.69746963
738080.2664189414429367.69746963738082.2664189414429367.69746963
738084.2664189414429367.69746963738086.2664189414429367.69746963
738088.2664189414429367.69746963738090.2664189414429367.69746963
738092.2664189414429367.69746963738094.2664189414429367.69746963
738096.2664189414429367.69746963738098.2664189414429367.69746963
738100.2664189414429367.69746963738102.2664189414429367.69746963
738104.2664189414429367.69746963738106.2664189414429367.69746963
738108.2664189414429367.69746963738110.2664189414429367.69746963
738112.2664189414429367.69746963738114.2664189414429367.69746963
738116.2664189414429367.69746963738118.2664189414429367.69746963
738120.2664189414429367.69746963738122.2664189414429367.69746963
738124.2664189414429367.69746963738126.2664189414429367.69746963
738128.2664189414429367.69746963738130.2664189414429367.69746963
738132.2664189414429367.69746963738134.2664189414429367.69746963
738136.2664189414429367.69746963738138.2664189414429367.69746963
738140.2664189414429367.69746963738142.2664189414429367.69746963
738144.2664189414429367.69746963738146.2664189414429367.69746963
738148.2664189414429367.69746963738150.2664189414429367.69746963
738152.2664189414429367.69746963738154.2664189414429367.69746963
738156.2664189414429367.69746963738158.2664189414429367.69746963
738160.2664189414429367.69746963738162.2664189414429367.69746963
738164.2664189414429367.69746963738166.2664189414429367.69746963
738168.2664189414429367.69746963738170.2664189414429367.69746963
738172.2664189414429367.69746963738174.2664189414429367.69746963
738176.2664189414429367.69746963738178.2664189414429367.69746963
738180.2664189414429367.69746963738182.2664189414429367.69746963
738184.2664189414429367.69746963738186.2664189414429367.69746963
738188.2664189414429367.69746963738190.2664189414429367.69746963
738192.2664189414429367.69746963738194.2664189414429367.69746963
738196.2664189414429367.69746963738198.2664189414429367.69746963
738200.2664189414429367.69746963738202.2664189414429367.69746963
738204.2664189414429367.69746963738206.2664189414429367.69746963
737992.2664189414429365.69746963737994.2664189414429365.69746963
737996.2664189414429365.69746963737998.2664189414429365.69746963
738000.2664189414429365.69746963738002.2664189414429365.69746963
738004.2664189414429365.69746963738006.2664189414429365.69746963
738008.2664189414429365.69746963738010.2664189414429365.69746963
738012.2664189414429365.69746963738014.2664189414429365.69746963
738016.2664189414429365.69746963738018.2664189414429365.69746963
738020.2664189414429365.69746963738022.2664189414429365.69746963
738024.2664189414429365.69746963738026.2664189414429365.69746963
738028.2664189414429365.69746963738030.2664189414429365.69746963
738032.2664189414429365.69746963738034.2664189414429365.69746963
738036.2664189414429365.69746963738038.2664189414429365.69746963
738040.2664189414429365.69746963738042.2664189414429365.69746963
738044.2664189414429365.69746963738046.2664189414429365.69746963
738048.2664189414429365.69746963738050.2664189414429365.69746963
738052.2664189414429365.69746963738054.2664189414429365.69746963
738056.2664189414429365.69746963738058.2664189414429365.69746963
738060.2664189414429365.69746963738062.2664189414429365.69746963
738064.2664189414429365.69746963738066.2664189414429365.69746963
738068.2664189414429365.69746963738070.2664189414429365.69746963
738072.2664189414429365.69746963738074.2664189414429365.69746963
738076.2664189414429365.69746963738078.2664189414429365.69746963
738080.2664189414429365.69746963738082.2664189414429365.69746963
738084.2664189414429365.69746963738086.2664189414429365.69746963
738088.2664189414429365.69746963738090.2664189414429365.69746963
738092.2664189414429365.69746963738094.2664189414429365.69746963
738096.2664189414429365.69746963738098.2664189414429365.69746963
738100.2664189414429365.69746963738102.2664189414429365.69746963
738104.2664189414429365.69746963738106.2664189414429365.69746963
738108.2664189414429365.69746963738110.2664189414429365.69746963
738112.2664189414429365.69746963738114.2664189414429365.69746963
738116.2664189414429365.69746963738118.2664189414429365.69746963
738120.2664189414429365.69746963738122.2664189414429365.69746963
738124.2664189414429365.69746963738126.2664189414429365.69746963
738128.2664189414429365.69746963738130.2664189414429365.69746963
738132.2664189414429365.69746963738134.2664189414429365.69746963
738136.2664189414429365.69746963738138.2664189414429365.69746963
738140.2664189414429365.69746963738142.2664189414429365.69746963
738144.2664189414429365.69746963738146.2664189414429365.69746963
738148.2664189414429365.69746963738150.2664189414429365.69746963
738152.2664189414429365.69746963738154.2664189414429365.69746963
738156.2664189414429365.69746963738158.2664189414429365.69746963
738160.2664189414429365.69746963738162.2664189414429365.69746963
738164.2664189414429365.69746963738166.2664189414429365.69746963
738168.2664189414429365.69746963738170.2664189414429365.69746963
738172.2664189414429365.69746963738174.2664189414429365.69746963
738176.2664189414429365.69746963738178.2664189414429365.69746963
738180.2664189414429365.69746963738182.2664189414429365.69746963
738184.2664189414429365.69746963738186.2664189414429365.69746963
738188.2664189414429365.69746963738190.2664189414429365.69746963
738192.2664189414429365.69746963738194.2664189414429365.69746963
738196.2664189414429365.69746963738198.2664189414429365.69746963
738200.2664189414429365.69746963738202.2664189414429365.69746963
738204.2664189414429365.69746963738206.2664189414429365.69746963
737942.2664189414429363.69746963737944.2664189414429363.69746963
737946.2664189414429363.69746963737948.2664189414429363.69746963
737950.2664189414429363.69746963737952.2664189414429363.69746963
737954.2664189414429363.69746963737956.2664189414429363.69746963
737958.2664189414429363.69746963737960.2664189414429363.69746963
737962.2664189414429363.69746963737964.2664189414429363.69746963
737966.2664189414429363.69746963737968.2664189414429363.69746963
737970.2664189414429363.69746963737972.2664189414429363.69746963
737974.2664189414429363.69746963737976.2664189414429363.69746963
737978.2664189414429363.69746963737980.2664189414429363.69746963
737982.2664189414429363.69746963737984.2664189414429363.69746963
737986.2664189414429363.69746963737988.2664189414429363.69746963
737990.2664189414429363.69746963737992.2664189414429363.69746963
737994.2664189414429363.69746963737996.2664189414429363.69746963
737998.2664189414429363.69746963738000.2664189414429363.69746963
738002.2664189414429363.69746963738004.2664189414429363.69746963
738006.2664189414429363.69746963738008.2664189414429363.69746963
738010.2664189414429363.69746963738012.2664189414429363.69746963
738014.2664189414429363.69746963738016.2664189414429363.69746963
738018.2664189414429363.69746963738020.2664189414429363.69746963
738022.2664189414429363.69746963738024.2664189414429363.69746963
738026.2664189414429363.69746963738028.2664189414429363.69746963
738030.2664189414429363.69746963738032.2664189414429363.69746963
738034.2664189414429363.69746963738036.2664189414429363.69746963
738038.2664189414429363.69746963738040.2664189414429363.69746963
738042.2664189414429363.69746963738044.2664189414429363.69746963
738046.2664189414429363.69746963738048.2664189414429363.69746963
738050.2664189414429363.69746963738052.2664189414429363.69746963
738054.2664189414429363.69746963738056.2664189414429363.69746963
738058.2664189414429363.69746963738060.2664189414429363.69746963
738062.2664189414429363.69746963738064.2664189414429363.69746963
738066.2664189414429363.69746963738068.2664189414429363.69746963
738070.2664189414429363.69746963738072.2664189414429363.69746963
738074.2664189414429363.69746963738076.2664189414429363.69746963
738078.2664189414429363.69746963738080.2664189414429363.69746963
738082.2664189414429363.69746963738084.2664189414429363.69746963
738086.2664189414429363.69746963738088.2664189414429363.69746963
738090.2664189414429363.69746963738092.2664189414429363.69746963
738094.2664189414429363.69746963738096.2664189414429363.69746963
738098.2664189414429363.69746963738100.2664189414429363.69746963
738102.2664189414429363.69746963738104.2664189414429363.69746963
738106.2664189414429363.69746963738108.2664189414429363.69746963
738110.2664189414429363.69746963738112.2664189414429363.69746963
738114.2664189414429363.69746963738116.2664189414429363.69746963
738118.2664189414429363.69746963738120.2664189414429363.69746963
738122.2664189414429363.69746963738124.2664189414429363.69746963
738126.2664189414429363.69746963738128.2664189414429363.69746963
738130.2664189414429363.69746963738132.2664189414429363.69746963
738134.2664189414429363.69746963738136.2664189414429363.69746963
738138.2664189414429363.69746963738140.2664189414429363.69746963
738142.2664189414429363.69746963738144.2664189414429363.69746963
738146.2664189414429363.69746963738148.2664189414429363.69746963
738150.2664189414429363.69746963738152.2664189414429363.69746963
738154.2664189414429363.69746963738156.2664189414429363.69746963
738158.2664189414429363.69746963738160.2664189414429363.69746963
738162.2664189414429363.69746963738164.2664189414429363.69746963
738166.2664189414429363.69746963738168.2664189414429363.69746963
738170.2664189414429363.69746963738172.2664189414429363.69746963
738174.2664189414429363.69746963738176.2664189414429363.69746963
738178.2664189414429363.69746963738180.2664189414429363.69746963
738182.2664189414429363.69746963738184.2664189414429363.69746963
738186.2664189414429363.69746963738188.2664189414429363.69746963
738190.2664189414429363.69746963738192.2664189414429363.69746963
738194.2664189414429363.69746963738196.2664189414429363.69746963
738198.2664189414429363.69746963738200.2664189414429363.69746963
738202.2664189414429363.69746963738204.2664189414429363.69746963
738206.2664189414429363.69746963737890.2664189414429361.69746963
737892.2664189414429361.69746963737894.2664189414429361.69746963
737896.2664189414429361.69746963737898.2664189414429361.69746963
737900.2664189414429361.69746963737902.2664189414429361.69746963
737904.2664189414429361.69746963737906.2664189414429361.69746963
737908.2664189414429361.69746963737910.2664189414429361.69746963
737912.2664189414429361.69746963737914.2664189414429361.69746963
737916.2664189414429361.69746963737918.2664189414429361.69746963
737920.2664189414429361.69746963737922.2664189414429361.69746963
737924.2664189414429361.69746963737926.2664189414429361.69746963
737928.2664189414429361.69746963737930.2664189414429361.69746963
737932.2664189414429361.69746963737934.2664189414429361.69746963
737936.2664189414429361.69746963737938.2664189414429361.69746963
737940.2664189414429361.69746963737942.2664189414429361.69746963
737944.2664189414429361.69746963737946.2664189414429361.69746963
737948.2664189414429361.69746963737950.2664189414429361.69746963
737952.2664189414429361.69746963737954.2664189414429361.69746963
737956.2664189414429361.69746963737958.2664189414429361.69746963
737960.2664189414429361.69746963737962.2664189414429361.69746963
737964.2664189414429361.69746963737966.2664189414429361.69746963
737968.2664189414429361.69746963737970.2664189414429361.69746963
737972.2664189414429361.69746963737974.2664189414429361.69746963
737976.2664189414429361.69746963737978.2664189414429361.69746963
737980.2664189414429361.69746963737982.2664189414429361.69746963
737984.2664189414429361.69746963737986.2664189414429361.69746963
737988.2664189414429361.69746963737990.2664189414429361.69746963
737992.2664189414429361.69746963737994.2664189414429361.69746963
737996.2664189414429361.69746963737998.2664189414429361.69746963
738000.2664189414429361.69746963738002.2664189414429361.69746963
738004.2664189414429361.69746963738006.2664189414429361.69746963
738008.2664189414429361.69746963738010.2664189414429361.69746963
738012.2664189414429361.69746963738014.2664189414429361.69746963
738016.2664189414429361.69746963738018.2664189414429361.69746963
738020.2664189414429361.69746963738022.2664189414429361.69746963
738024.2664189414429361.69746963738026.2664189414429361.69746963
738028.2664189414429361.69746963738030.2664189414429361.69746963
738032.2664189414429361.69746963738034.2664189414429361.69746963
738036.2664189414429361.69746963738038.2664189414429361.69746963
738040.2664189414429361.69746963738042.2664189414429361.69746963
738044.2664189414429361.69746963738046.2664189414429361.69746963
738048.2664189414429361.69746963738050.2664189414429361.69746963
738052.2664189414429361.69746963738054.2664189414429361.69746963
738056.2664189414429361.69746963738058.2664189414429361.69746963
738060.2664189414429361.69746963738062.2664189414429361.69746963
738064.2664189414429361.69746963738066.2664189414429361.69746963
738068.2664189414429361.69746963738070.2664189414429361.69746963
738072.2664189414429361.69746963738074.2664189414429361.69746963
738076.2664189414429361.69746963738078.2664189414429361.69746963
738080.2664189414429361.69746963738082.2664189414429361.69746963
738084.2664189414429361.69746963738086.2664189414429361.69746963
738088.2664189414429361.69746963738090.2664189414429361.69746963
738092.2664189414429361.69746963738094.2664189414429361.69746963
738096.2664189414429361.69746963738098.2664189414429361.69746963
738100.2664189414429361.69746963738102.2664189414429361.69746963
738104.2664189414429361.69746963738106.2664189414429361.69746963
738108.2664189414429361.69746963738110.2664189414429361.69746963
738112.2664189414429361.69746963738114.2664189414429361.69746963
738116.2664189414429361.69746963738118.2664189414429361.69746963
738120.2664189414429361.69746963738122.2664189414429361.69746963
738124.2664189414429361.69746963738126.2664189414429361.69746963
738128.2664189414429361.69746963738130.2664189414429361.69746963
738132.2664189414429361.69746963738134.2664189414429361.69746963
738136.2664189414429361.69746963738138.2664189414429361.69746963
738140.2664189414429361.69746963738142.2664189414429361.69746963
738144.2664189414429361.69746963738146.2664189414429361.69746963
738148.2664189414429361.69746963738150.2664189414429361.69746963
738152.2664189414429361.69746963738154.2664189414429361.69746963
738156.2664189414429361.69746963738158.2664189414429361.69746963
738160.2664189414429361.69746963738162.2664189414429361.69746963
738164.2664189414429361.69746963738166.2664189414429361.69746963
738168.2664189414429361.69746963738170.2664189414429361.69746963
738172.2664189414429361.69746963738174.2664189414429361.69746963
738176.2664189414429361.69746963738178.2664189414429361.69746963
738180.2664189414429361.69746963738182.2664189414429361.69746963
738184.2664189414429361.69746963738186.2664189414429361.69746963
738188.2664189414429361.69746963738190.2664189414429361.69746963
738192.2664189414429361.69746963738194.2664189414429361.69746963
738196.2664189414429361.69746963738198.2664189414429361.69746963
738200.2664189414429361.69746963738202.2664189414429361.69746963
738204.2664189414429361.69746963738206.2664189414429361.69746963
737840.2664189414429359.69746963737842.2664189414429359.69746963
737844.2664189414429359.69746963737846.2664189414429359.69746963
737848.2664189414429359.69746963737850.2664189414429359.69746963
737852.2664189414429359.69746963737854.2664189414429359.69746963
737856.2664189414429359.69746963737858.2664189414429359.69746963
737860.2664189414429359.69746963737862.2664189414429359.69746963
737864.2664189414429359.69746963737866.2664189414429359.69746963
737868.2664189414429359.69746963737870.2664189414429359.69746963
737872.2664189414429359.69746963737874.2664189414429359.69746963
737876.2664189414429359.69746963737878.2664189414429359.69746963
737880.2664189414429359.69746963737882.2664189414429359.69746963
737884.2664189414429359.69746963737886.2664189414429359.69746963
737888.2664189414429359.69746963737890.2664189414429359.69746963
737892.2664189414429359.69746963737894.2664189414429359.69746963
737896.2664189414429359.69746963737898.2664189414429359.69746963
737900.2664189414429359.69746963737902.2664189414429359.69746963
737904.2664189414429359.69746963737906.2664189414429359.69746963
737908.2664189414429359.69746963737910.2664189414429359.69746963
737912.2664189414429359.69746963737914.2664189414429359.69746963
737916.2664189414429359.69746963737918.2664189414429359.69746963
737920.2664189414429359.69746963737922.2664189414429359.69746963
737924.2664189414429359.69746963737926.2664189414429359.69746963
737928.2664189414429359.69746963737930.2664189414429359.69746963
737932.2664189414429359.69746963737934.2664189414429359.69746963
737936.2664189414429359.69746963737938.2664189414429359.69746963
737940.2664189414429359.69746963737942.2664189414429359.69746963
737944.2664189414429359.69746963737946.2664189414429359.69746963
737948.2664189414429359.69746963737950.2664189414429359.69746963
737952.2664189414429359.69746963737954.2664189414429359.69746963
737956.2664189414429359.69746963737958.2664189414429359.69746963
737960.2664189414429359.69746963737962.2664189414429359.69746963
737964.2664189414429359.69746963737966.2664189414429359.69746963
737968.2664189414429359.69746963737970.2664189414429359.69746963
737972.2664189414429359.69746963737974.2664189414429359.69746963
737976.2664189414429359.69746963737978.2664189414429359.69746963
737980.2664189414429359.69746963737982.2664189414429359.69746963
737984.2664189414429359.69746963737986.2664189414429359.69746963
737988.2664189414429359.69746963737990.2664189414429359.69746963
737992.2664189414429359.69746963737994.2664189414429359.69746963
737996.2664189414429359.69746963737998.2664189414429359.69746963
738000.2664189414429359.69746963738002.2664189414429359.69746963
738004.2664189414429359.69746963738006.2664189414429359.69746963
738008.2664189414429359.69746963738010.2664189414429359.69746963
738012.2664189414429359.69746963738014.2664189414429359.69746963
738016.2664189414429359.69746963738018.2664189414429359.69746963
738020.2664189414429359.69746963738022.2664189414429359.69746963
738024.2664189414429359.69746963738026.2664189414429359.69746963
738028.2664189414429359.69746963738030.2664189414429359.69746963
738032.2664189414429359.69746963738034.2664189414429359.69746963
738036.2664189414429359.69746963738038.2664189414429359.69746963
738040.2664189414429359.69746963738042.2664189414429359.69746963
738044.2664189414429359.69746963738046.2664189414429359.69746963
738048.2664189414429359.69746963738050.2664189414429359.69746963
738052.2664189414429359.69746963738054.2664189414429359.69746963
738056.2664189414429359.69746963738058.2664189414429359.69746963
738060.2664189414429359.69746963738062.2664189414429359.69746963
738064.2664189414429359.69746963738066.2664189414429359.69746963
738068.2664189414429359.69746963738070.2664189414429359.69746963
738072.2664189414429359.69746963738074.2664189414429359.69746963
738076.2664189414429359.69746963738078.2664189414429359.69746963
738080.2664189414429359.69746963738082.2664189414429359.69746963
738084.2664189414429359.69746963738086.2664189414429359.69746963
738088.2664189414429359.69746963738090.2664189414429359.69746963
738092.2664189414429359.69746963738094.2664189414429359.69746963
738096.2664189414429359.69746963738098.2664189414429359.69746963
738100.2664189414429359.69746963738102.2664189414429359.69746963
738104.2664189414429359.69746963738106.2664189414429359.69746963
738108.2664189414429359.69746963738110.2664189414429359.69746963
738112.2664189414429359.69746963738114.2664189414429359.69746963
738116.2664189414429359.69746963738118.2664189414429359.69746963
738120.2664189414429359.69746963738122.2664189414429359.69746963
738124.2664189414429359.69746963738126.2664189414429359.69746963
738128.2664189414429359.69746963738130.2664189414429359.69746963
738132.2664189414429359.69746963738134.2664189414429359.69746963
738136.2664189414429359.69746963738138.2664189414429359.69746963
738140.2664189414429359.69746963738142.2664189414429359.69746963
738144.2664189414429359.69746963738146.2664189414429359.69746963
738148.2664189414429359.69746963738150.2664189414429359.69746963
738152.2664189414429359.69746963738154.2664189414429359.69746963
738156.2664189414429359.69746963738158.2664189414429359.69746963
738160.2664189414429359.69746963738162.2664189414429359.69746963
738164.2664189414429359.69746963738166.2664189414429359.69746963
738168.2664189414429359.69746963738170.2664189414429359.69746963
738172.2664189414429359.69746963738174.2664189414429359.69746963
738176.2664189414429359.69746963738178.2664189414429359.69746963
738180.2664189414429359.69746963738182.2664189414429359.69746963
738184.2664189414429359.69746963738186.2664189414429359.69746963
738188.2664189414429359.69746963738190.2664189414429359.69746963
738192.2664189414429359.69746963738194.2664189414429359.69746963
738196.2664189414429359.69746963738198.2664189414429359.69746963
738200.2664189414429359.69746963738202.2664189414429359.69746963
738204.2664189414429359.69746963738206.2664189414429359.69746963
737788.2664189414429357.69746963737790.2664189414429357.69746963
737792.2664189414429357.69746963737794.2664189414429357.69746963
737796.2664189414429357.69746963737798.2664189414429357.69746963
737800.2664189414429357.69746963737802.2664189414429357.69746963
737804.2664189414429357.69746963737806.2664189414429357.69746963
737808.2664189414429357.69746963737810.2664189414429357.69746963
737812.2664189414429357.69746963737814.2664189414429357.69746963
737816.2664189414429357.69746963737818.2664189414429357.69746963
737820.2664189414429357.69746963737822.2664189414429357.69746963
737824.2664189414429357.69746963737826.2664189414429357.69746963
737828.2664189414429357.69746963737830.2664189414429357.69746963
737832.2664189414429357.69746963737834.2664189414429357.69746963
737836.2664189414429357.69746963737838.2664189414429357.69746963
737840.2664189414429357.69746963737842.2664189414429357.69746963
737844.2664189414429357.69746963737846.2664189414429357.69746963
737848.2664189414429357.69746963737850.2664189414429357.69746963
737852.2664189414429357.69746963737854.2664189414429357.69746963
737856.2664189414429357.69746963737858.2664189414429357.69746963
737860.2664189414429357.69746963737862.2664189414429357.69746963
737864.2664189414429357.69746963737866.2664189414429357.69746963
737868.2664189414429357.69746963737870.2664189414429357.69746963
737872.2664189414429357.69746963737874.2664189414429357.69746963
737876.2664189414429357.69746963737878.2664189414429357.69746963
737880.2664189414429357.69746963737882.2664189414429357.69746963
737884.2664189414429357.69746963737886.2664189414429357.69746963
737888.2664189414429357.69746963737890.2664189414429357.69746963
737892.2664189414429357.69746963737894.2664189414429357.69746963
737896.2664189414429357.69746963737898.2664189414429357.69746963
737900.2664189414429357.69746963737902.2664189414429357.69746963
737904.2664189414429357.69746963737906.2664189414429357.69746963
737908.2664189414429357.69746963737910.2664189414429357.69746963
737912.2664189414429357.69746963737914.2664189414429357.69746963
737916.2664189414429357.69746963737918.2664189414429357.69746963
737920.2664189414429357.69746963737922.2664189414429357.69746963
737924.2664189414429357.69746963737926.2664189414429357.69746963
737928.2664189414429357.69746963737930.2664189414429357.69746963
737932.2664189414429357.69746963737934.2664189414429357.69746963
737936.2664189414429357.69746963737938.2664189414429357.69746963
737940.2664189414429357.69746963737942.2664189414429357.69746963
737944.2664189414429357.69746963737946.2664189414429357.69746963
737948.2664189414429357.69746963737950.2664189414429357.69746963
737952.2664189414429357.69746963737954.2664189414429357.69746963
737956.2664189414429357.69746963737958.2664189414429357.69746963
737960.2664189414429357.69746963737962.2664189414429357.69746963
737964.2664189414429357.69746963737966.2664189414429357.69746963
737968.2664189414429357.69746963737970.2664189414429357.69746963
737972.2664189414429357.69746963737974.2664189414429357.69746963
737976.2664189414429357.69746963737978.2664189414429357.69746963
737980.2664189414429357.69746963737982.2664189414429357.69746963
737984.2664189414429357.69746963737986.2664189414429357.69746963
737988.2664189414429357.69746963737990.2664189414429357.69746963
737992.2664189414429357.69746963737994.2664189414429357.69746963